LAMMPS (16 Mar 2018)
echo              both
units             real
dimension          3
atom_style        full
boundary          p p p
#pair_style        lj/class2/coul/long  12.5
pair_style          lj/class2/coul/cut 12.5
pair_modify       shift yes mix arithmetic
#kspace_style      pppm 0.0001
bond_style        class2
angle_style       class2
dihedral_style    class2
improper_style    class2

read_data          C199H148N2O9_46.data
  orthogonal box = (-110 -10 -35) to (790 125 100)
  reading atoms ...
  16468 atoms
  scanning bonds ...
  scanning angles ...
  scanning dihedrals ...
  scanning impropers ...
  reading bonds ...
  18308 bonds
  reading angles ...
  32522 angles
  reading dihedrals ...
  50876 dihedrals
  reading impropers ...
  13938 impropers

neighbor          2 bin
#neigh_modify      every 1 delay 0 check yes page 1000000 one 20000
neigh_modify      every 1 delay 0 check yes

thermo            1000
thermo_style      custom step temp press pe ke density

#variable          zl equal "zlo + 0.01*lz"
#variable          zh equal "zhi - 0.01*lz"

#fix               20 all indent 10000.0 plane z v_zh hi units box
#fix               21 all indent 10000.0 plane z v_zl lo units box

fix               1 all nvt temp 1000 1000 100
run               100000
  update every 1 steps, delay 0 steps, check yes
Step Temp Press PotEng KinEng Density
0            0   -227.65462    135237.47            0  0.012626747
Averages over the last 51 of 101 rows, steps 50000 to 100000:
Temp Press PotEng KinEng Density
999.435 -4.74678 178932 49057.3 0.0126267
Loop time of 548.523 on 40 procs for 100000 steps with 16468 atoms

unfix             1
write_data         C199H148N2O9_46nvt.data

fix               2 all npt temp 900 900 100 iso 100 100 1000
run               100000
Step Temp Press PotEng KinEng Density
100000    995.77533    4.1986853    178621.26    48877.631  0.012626747
Averages over the last 51 of 101 rows, steps 150000 to 200000:
Temp Press PotEng KinEng Density
900.541 -174.159 171302 44203.1 0.366446
Loop time of 870.772 on 40 procs for 100000 steps with 16468 atoms

unfix             2

fix               3 all npt temp 700 700 100 iso 100 100 1000
run               100000
Step Temp Press PotEng KinEng Density
200000    901.56491   -555.50666    169873.27    44253.313    0.6100871
Averages over the last 51 of 101 rows, steps 250000 to 300000:
Temp Press PotEng KinEng Density
699.935 -223.012 157685 34356.3 0.992458
Loop time of 1214.81 on 40 procs for 100000 steps with 16468 atoms

unfix             3

fix               4 all npt temp 500 500 100 iso 100 100 1000
run               100000
Step Temp Press PotEng KinEng Density
300000    698.84091   -740.19186    157780.96    34302.605   0.99471511
Averages over the last 51 of 101 rows, steps 350000 to 400000:
Temp Press PotEng KinEng Density
500.235 62.2398 146687 24554 1.07021
Loop time of 1174.78 on 40 procs for 100000 steps with 16468 atoms

unfix             4

fix               5 all npt temp 300 300 100 iso 100 100 1000
run               100000
Step Temp Press PotEng KinEng Density
400000    497.02061    154.01363    146836.52    24396.256    1.0662523
Averages over the last 51 of 101 rows, steps 450000 to 500000:
Temp Press PotEng KinEng Density
299.62 -1.39014 136165 14706.9 1.12527
Loop time of 1167.68 on 40 procs for 100000 steps with 16468 atoms

unfix             5

fix               6 all npt temp 300 300 100 iso 1 1 1000
run               400000
Step Temp Press PotEng KinEng Density
500000    301.37212   -84.601121    136193.42     14792.85    1.1197674
Averages over the last 201 of 401 rows, steps 700000 to 900000:
Temp Press PotEng KinEng Density
300.049 -48.6298 136111 14727.9 1.12426
Loop time of 4688.7 on 40 procs for 400000 steps with 16468 atoms

write_data        C199H148N2O9_46new.data
