LAMMPS (16 Mar 2018)
echo              both
units             real
dimension          3
atom_style        full
boundary          p p p
#pair_style        lj/class2/coul/long  12.5
pair_style          lj/class2/coul/cut 12.5
pair_modify       shift yes mix arithmetic
#kspace_style      pppm 0.0001
bond_style        class2
angle_style       class2
dihedral_style    class2
improper_style    class2

read_data          C39H37NO10S_191.data
  orthogonal box = (-340 -18 -10) to (200 63 71)
  reading atoms ...
  16808 atoms
  scanning bonds ...
  scanning angles ...
  scanning dihedrals ...
  scanning impropers ...
  reading bonds ...
  17954 bonds
  reading angles ...
  31515 angles
  reading dihedrals ...
  46604 dihedrals
  reading impropers ...
  14898 impropers

neighbor          2 bin
#neigh_modify      every 1 delay 0 check yes page 1000000 one 20000
neigh_modify      every 1 delay 0 check yes

thermo            1000
thermo_style      custom step temp press pe ke density

#variable          zl equal "zlo + 0.01*lz"
#variable          zh equal "zhi - 0.01*lz"

#fix               20 all indent 10000.0 plane z v_zh hi units box
#fix               21 all indent 10000.0 plane z v_zl lo units box

fix               1 all nvt temp 1000 1000 100
run               100000
  update every 1 steps, delay 0 steps, check yes
Step Temp Press PotEng KinEng Density
0            0   -826.76431     7274.071            0  0.063719632
Averages over the last 51 of 101 rows, steps 50000 to 100000:
Temp Press PotEng KinEng Density
999.952 -12.2722 38829.8 50096.1 0.0637196
Loop time of 1838.65 on 40 procs for 100000 steps with 16808 atoms

unfix             1
write_data         C39H37NO10S_191nvt.data

fix               2 all npt temp 900 900 100 iso 100 100 1000
run               100000
Step Temp Press PotEng KinEng Density
100000     1005.852    16.218375    38324.943    50391.652  0.063719632
Averages over the last 51 of 101 rows, steps 150000 to 200000:
Temp Press PotEng KinEng Density
901.54 27.6193 29386.7 45165.8 0.735044
Loop time of 1767.24 on 40 procs for 100000 steps with 16808 atoms

unfix             2

fix               3 all npt temp 700 700 100 iso 100 100 1000
run               100000
Step Temp Press PotEng KinEng Density
200000    912.00381   -251.99005    28025.966        45690    0.9497473
Averages over the last 51 of 101 rows, steps 250000 to 300000:
Temp Press PotEng KinEng Density
700.158 103.322 16220.1 35076.8 1.08474
Loop time of 1186.68 on 40 procs for 100000 steps with 16808 atoms

unfix             3

fix               4 all npt temp 500 500 100 iso 100 100 1000
run               100000
Step Temp Press PotEng KinEng Density
300000    696.13533    862.22358    14994.084    34875.318    1.0885504
Averages over the last 51 of 101 rows, steps 350000 to 400000:
Temp Press PotEng KinEng Density
500.257 93.6314 4215.32 25062.1 1.18863
Loop time of 1222.75 on 40 procs for 100000 steps with 16808 atoms

unfix             4

fix               5 all npt temp 300 300 100 iso 100 100 1000
run               100000
Step Temp Press PotEng KinEng Density
400000    497.41582    107.34937    3377.9395    24919.774    1.1931929
Averages over the last 51 of 101 rows, steps 450000 to 500000:
Temp Press PotEng KinEng Density
300.226 68.4201 -6885.55 15040.9 1.25349
Loop time of 1192.2 on 40 procs for 100000 steps with 16808 atoms

unfix             5

fix               6 all npt temp 300 300 100 iso 1 1 1000
run               400000
Step Temp Press PotEng KinEng Density
500000    303.24248   -354.48915   -6824.0921    15191.986    1.2521724
Averages over the last 201 of 401 rows, steps 700000 to 900000:
Temp Press PotEng KinEng Density
300.016 38.6897 -6799.44 15030.3 1.25534
Loop time of 4756.55 on 40 procs for 400000 steps with 16808 atoms

write_data         C39H37NO10S_191new.data
