LAMMPS (16 Mar 2018)
echo              both
units             real
dimension          3
atom_style        full
boundary          p p p
#pair_style        lj/class2/coul/long  12.5
pair_style          lj/class2/coul/cut 12.5
pair_modify       shift yes mix arithmetic
#kspace_style      pppm 0.0001
bond_style        class2
angle_style       class2
dihedral_style    class2
improper_style    class2

read_data         C100H82N2O5S2_88.data
  orthogonal box = (-200 -15 -50) to (800 135 100)
  reading atoms ...
  16808 atoms
  scanning bonds ...
  scanning angles ...
  scanning dihedrals ...
  scanning impropers ...
  reading bonds ...
  18568 bonds
  reading angles ...
  33088 angles
  reading dihedrals ...
  51304 dihedrals
  reading impropers ...
  14696 impropers

neighbor          2 bin
#neigh_modify      every 1 delay 0 check yes page 1000000 one 20000
neigh_modify      every 1 delay 0 check yes

thermo            1000
thermo_style      custom step temp press pe ke density

#variable          zl equal "zlo + 0.01*lz"
#variable          zh equal "zhi - 0.01*lz"

#fix               20 all indent 10000.0 plane z v_zh hi units box
#fix               21 all indent 10000.0 plane z v_zl lo units box

fix               1 all nvt temp 1000 1000 100
run               100000
  update every 1 steps, delay 0 steps, check yes
Step Temp Press PotEng KinEng Density
0            0   -121.89597    67443.851            0 0.0094554637
Averages over the last 51 of 101 rows, steps 50000 to 100000:
Temp Press PotEng KinEng Density
1000.49 -2.54444 110722 50122.8 0.00945546
Loop time of 510.453 on 50 procs for 100000 steps with 16808 atoms

unfix             1

fix               2 all npt temp 900 900 100 iso 100 100 1000
run               100000
Step Temp Press PotEng KinEng Density
100000     999.3114    -2.196086    110783.48    50063.976 0.0094554637
Averages over the last 51 of 101 rows, steps 150000 to 200000:
Temp Press PotEng KinEng Density
900 -121.16 102694 45088.6 0.316906
Loop time of 1024.81 on 50 procs for 100000 steps with 16808 atoms

unfix             2

fix               3 all npt temp 700 700 100 iso 100 100 1000
run               100000
Step Temp Press PotEng KinEng Density
200000    900.19736   -621.43829    101784.06    45098.515   0.52284323
Averages over the last 51 of 101 rows, steps 250000 to 300000:
Temp Press PotEng KinEng Density
699.93 -2.02425 89574.5 35065.4 1.01793
Loop time of 677.727 on 50 procs for 100000 steps with 16808 atoms

unfix             3

fix               4 all npt temp 500 500 100 iso 100 100 1000
run               100000
Step Temp Press PotEng KinEng Density
300000    702.28207    1163.5695    89456.947     35183.26     1.018736
Averages over the last 51 of 101 rows, steps 350000 to 400000:
Temp Press PotEng KinEng Density
499.827 173.533 78347.8 25040.6 1.10978
Loop time of 589.536 on 50 procs for 100000 steps with 16808 atoms

unfix             4

fix               5 all npt temp 300 300 100 iso 100 100 1000
run               100000
Step Temp Press PotEng KinEng Density
400000    501.38996   -560.26757    78331.993    25118.872    1.1097895
Averages over the last 51 of 101 rows, steps 450000 to 500000:
Temp Press PotEng KinEng Density
299.794 -51.615 67475.3 15019.2 1.18163
Loop time of 579.256 on 50 procs for 100000 steps with 16808 atoms

unfix             5

fix               6 all npt temp 300 300 100 iso 1 1 1000
run               400000
Step Temp Press PotEng KinEng Density
500000    296.04538    260.44573    67351.134    14831.422    1.1799931
Averages over the last 201 of 401 rows, steps 700000 to 900000:
Temp Press PotEng KinEng Density
300.066 30.2574 67291.1 15032.9 1.18003
Loop time of 2327.47 on 50 procs for 400000 steps with 16808 atoms

write_data        C100H82N2O5S2_88new.data
